
     RDKit          3D

 12 12  0  0  0  0  0  0  0  0999 V2000
    1.1820    0.1320   -1.3420 C   0  0  0  0  0  0  0  0  0  0  0  0
   -0.1820   -0.0550   -1.8180 C   0  0  0  0  0  0  0  0  0  0  0  0
   -1.0390    0.3520   -0.8600 C   0  0  0  0  0  0  0  0  0  0  0  0
   -0.1930    0.8290    0.2970 C   0  0  1  0  0  0  0  0  0  0  0  0
   -0.4900   -0.0060    1.5440 C   0  0  2  0  0  0  0  0  0  0  0  0
    0.3870    0.4730    2.7010 C   0  0  0  0  0  0  0  0  0  0  0  0
    2.1860   -0.1390   -1.9740 O   0  0  0  0  0  0  0  0  0  0  0  0
   -0.5350   -0.5610   -3.0330 O   0  0  0  0  0  0  0  0  0  0  0  0
   -2.3880    0.3360   -0.9230 O   0  0  0  0  0  0  0  0  0  0  0  0
    1.1690    0.6520   -0.1000 O   0  0  0  0  0  0  0  0  0  0  0  0
   -0.2110   -1.3810    1.2730 O   0  0  0  0  0  0  0  0  0  0  0  0
    0.1100   -0.3070    3.8650 O   0  0  0  0  0  0  0  0  0  0  0  0
  1  2  1  0
  1  7  2  0
  1 10  1  0
  2  3  2  0
  2  8  1  0
  3  4  1  0
  3  9  1  0
  4  5  1  0
  4 10  1  6
  5  6  1  0
  5 11  1  6
  6 12  1  0
M  END
