
     RDKit          3D

 30 31  0  0  0  0  0  0  0  0999 V2000
    2.5590    2.5850    0.1850 C   0  0  0  0  0  0  0  0  0  0  0  0
    3.2850    1.4690   -0.0300 C   0  0  0  0  0  0  0  0  0  0  0  0
    2.5200    0.6200   -0.8540 C   0  0  0  0  0  0  0  0  0  0  0  0
    1.3550    1.2490   -1.1110 C   0  0  0  0  0  0  0  0  0  0  0  0
    4.6620    1.1830    0.5120 C   0  0  0  0  0  0  0  0  0  0  0  0
    4.5440    0.4890    1.8440 C   0  0  0  0  0  0  0  0  0  0  0  0
    2.9280   -0.7420   -1.3550 C   0  0  0  0  0  0  0  0  0  0  0  0
    2.4800   -1.8090   -0.3550 C   0  0  0  0  0  0  0  0  0  0  0  0
    2.8880   -3.1700   -0.8570 C   0  0  0  0  0  0  0  0  0  0  0  0
    2.9850    3.7700    1.0120 C   0  0  0  0  0  0  0  0  0  0  0  0
    1.3760    2.4580   -0.4810 N   0  0  0  0  0  0  0  0  0  0  0  0
    3.4530    0.2520    2.3070 O   0  0  0  0  0  0  0  0  0  0  0  0
    5.6500    0.1360    2.5170 O   0  0  0  0  0  0  0  0  0  0  0  0
    3.4770   -3.2760   -1.9060 O   0  0  0  0  0  0  0  0  0  0  0  0
    2.5970   -4.2660   -0.1370 O   0  0  0  0  0  0  0  0  0  0  0  0
   -0.6580   -0.1660   -1.1090 C   0  0  0  0  0  0  0  0  0  0  0  0
   -1.6740    0.2540   -0.3300 C   0  0  0  0  0  0  0  0  0  0  0  0
   -2.2350   -0.8840    0.2830 C   0  0  0  0  0  0  0  0  0  0  0  0
   -1.5390   -1.9570   -0.1460 C   0  0  0  0  0  0  0  0  0  0  0  0
   -2.1280    1.6800   -0.1460 C   0  0  0  0  0  0  0  0  0  0  0  0
   -3.1760    2.0100   -1.1770 C   0  0  0  0  0  0  0  0  0  0  0  0
   -3.3980   -0.9000    1.2410 C   0  0  0  0  0  0  0  0  0  0  0  0
   -4.7080   -0.9280    0.4520 C   0  0  0  0  0  0  0  0  0  0  0  0
   -5.8710   -0.9430    1.4110 C   0  0  0  0  0  0  0  0  0  0  0  0
    0.2290    0.7120   -1.9550 C   0  0  0  0  0  0  0  0  0  0  0  0
   -0.5660   -1.5220   -0.9960 N   0  0  0  0  0  0  0  0  0  0  0  0
   -3.5200    1.1730   -1.9790 O   0  0  0  0  0  0  0  0  0  0  0  0
   -3.7280    3.2330   -1.2050 O   0  0  0  0  0  0  0  0  0  0  0  0
   -5.6720   -0.9340    2.6030 O   0  0  0  0  0  0  0  0  0  0  0  0
   -7.1280   -0.9680    0.9410 O   0  0  0  0  0  0  0  0  0  0  0  0
  1  2  2  0
  1 10  1  0
  1 11  1  0
  2  3  1  0
  2  5  1  0
  3  4  2  0
  3  7  1  0
  4 11  1  0
  4 25  1  0
  5  6  1  0
  6 12  2  0
  6 13  1  0
  7  8  1  0
  8  9  1  0
  9 14  2  0
  9 15  1  0
 16 17  2  0
 16 25  1  0
 16 26  1  0
 17 18  1  0
 17 20  1  0
 18 19  2  0
 18 22  1  0
 19 26  1  0
 20 21  1  0
 21 27  2  0
 21 28  1  0
 22 23  1  0
 23 24  1  0
 24 29  2  0
 24 30  1  0
M  END
