
     RDKit          3D

 53 58  0  0  0  0  0  0  0  0999 V2000
   -1.6480   -0.6290   -3.2290 P   0  0  1  0  0  0  0  0  0  0  0  0
   -3.0350   -1.0880   -2.9920 O   0  0  0  0  0  0  0  0  0  0  0  0
   -0.6780   -1.9060   -3.3780 O   0  0  0  0  0  0  0  0  0  0  0  0
   -1.5950    0.2450   -4.5800 O   0  0  0  0  0  0  0  0  0  0  0  0
   -2.0360   -0.6050   -5.6400 C   0  0  0  0  0  0  0  0  0  0  0  0
   -2.0090    0.1690   -6.9590 C   0  0  1  0  0  0  0  0  0  0  0  0
   -0.6650    0.5830   -7.2560 O   0  0  0  0  0  0  0  0  0  0  0  0
   -2.4760   -0.7410   -8.1110 C   0  0  1  0  0  0  0  0  0  0  0  0
   -3.6390   -0.2030   -8.7440 O   0  0  0  0  0  0  0  0  0  0  0  0
   -1.2770   -0.7480   -9.0950 C   0  0  1  0  0  0  0  0  0  0  0  0
   -1.7280   -0.6720  -10.4490 O   0  0  0  0  0  0  0  0  0  0  0  0
   -0.5180    0.5410   -8.6920 C   0  0  2  0  0  0  0  0  0  0  0  0
    0.8950    0.4490   -9.0630 N   0  0  0  0  0  0  0  0  0  0  0  0
    1.8890   -0.1180   -8.3220 C   0  0  0  0  0  0  0  0  0  0  0  0
    3.0230   -0.0240   -8.9530 N   0  0  0  0  0  0  0  0  0  0  0  0
    2.8300    0.6060  -10.1360 C   0  0  0  0  0  0  0  0  0  0  0  0
    3.6630    0.9790  -11.2050 C   0  0  0  0  0  0  0  0  0  0  0  0
    5.0180    0.6980  -11.1780 N   0  0  0  0  0  0  0  0  0  0  0  0
    3.1190    1.6070  -12.2420 N   0  0  0  0  0  0  0  0  0  0  0  0
    1.8270    1.8780  -12.2770 C   0  0  0  0  0  0  0  0  0  0  0  0
    1.0100    1.5490  -11.2990 N   0  0  0  0  0  0  0  0  0  0  0  0
    1.4620    0.9140  -10.2230 C   0  0  0  0  0  0  0  0  0  0  0  0
   -1.9330    0.3600    8.3210 N   0  0  0  0  0  0  0  0  0  0  0  0
   -2.8020    1.0330    9.0700 C   0  0  0  0  0  0  0  0  0  0  0  0
   -3.9700    1.0430    8.7210 O   0  0  0  0  0  0  0  0  0  0  0  0
   -2.4740    1.7010   10.1850 N   0  0  0  0  0  0  0  0  0  0  0  0
   -1.1970    1.7340   10.6340 C   0  0  0  0  0  0  0  0  0  0  0  0
   -0.8970    2.3400   11.6440 O   0  0  0  0  0  0  0  0  0  0  0  0
   -0.1840    1.0030    9.8420 C   0  0  0  0  0  0  0  0  0  0  0  0
    1.0780    0.9680   10.1850 N   0  0  0  0  0  0  0  0  0  0  0  0
    1.9690    0.2950    9.4460 C   0  0  0  0  0  0  0  0  0  0  0  0
    3.3240    0.2700    9.8330 C   0  0  0  0  0  0  0  0  0  0  0  0
    4.2320   -0.4120    9.0820 C   0  0  0  0  0  0  0  0  0  0  0  0
    5.6790   -0.4340    9.5020 C   0  0  0  0  0  0  0  0  0  0  0  0
    3.8410   -1.0850    7.9300 C   0  0  0  0  0  0  0  0  0  0  0  0
    4.8660   -1.8320    7.1160 C   0  0  0  0  0  0  0  0  0  0  0  0
    2.5230   -1.0820    7.5290 C   0  0  0  0  0  0  0  0  0  0  0  0
    1.5720   -0.3930    8.2780 C   0  0  0  0  0  0  0  0  0  0  0  0
    0.2530   -0.3820    7.8770 N   0  0  0  0  0  0  0  0  0  0  0  0
   -0.6490    0.3010    8.6340 C   0  0  0  0  0  0  0  0  0  0  0  0
   -0.1680   -1.0930    6.6680 C   0  0  0  0  0  0  0  0  0  0  0  0
   -0.0700   -0.1530    5.4640 C   0  0  2  0  0  0  0  0  0  0  0  0
   -0.9190    0.9770    5.6730 O   0  0  0  0  0  0  0  0  0  0  0  0
   -0.5110   -0.8950    4.2010 C   0  0  2  0  0  0  0  0  0  0  0  0
    0.3370   -2.0260    3.9920 O   0  0  0  0  0  0  0  0  0  0  0  0
   -0.4130    0.0440    2.9970 C   0  0  2  0  0  0  0  0  0  0  0  0
   -1.2620    1.1740    3.2060 O   0  0  0  0  0  0  0  0  0  0  0  0
   -0.8540   -0.6970    1.7340 C   0  0  0  0  0  0  0  0  0  0  0  0
   -0.7630    0.1790    0.6100 O   0  0  0  0  0  0  0  0  0  0  0  0
   -1.2390   -0.6620   -0.6770 P   0  0  1  0  0  0  0  0  0  0  0  0
   -0.3540   -1.8350   -0.8530 O   0  0  0  0  0  0  0  0  0  0  0  0
   -2.7540   -1.1600   -0.4620 O   0  0  0  0  0  0  0  0  0  0  0  0
   -1.1610    0.2700   -1.9870 O   0  0  0  0  0  0  0  0  0  0  0  0
  1  2  2  0
  1  3  1  6
  1  4  1  0
  1 53  1  0
  4  5  1  0
  6  5  1  1
  6  7  1  0
  6  8  1  0
  7 12  1  0
  8  9  1  6
  8 10  1  0
 10 11  1  6
 10 12  1  0
 12 13  1  1
 13 14  1  0
 13 22  1  0
 14 15  2  0
 15 16  1  0
 16 17  1  0
 16 22  2  0
 17 18  1  0
 17 19  2  0
 19 20  1  0
 20 21  2  0
 21 22  1  0
 23 24  1  0
 23 40  2  0
 24 25  2  0
 24 26  1  0
 26 27  1  0
 27 28  2  0
 27 29  1  0
 29 30  2  0
 29 40  1  0
 30 31  1  0
 31 32  1  0
 31 38  2  0
 32 33  2  0
 33 34  1  0
 33 35  1  0
 35 36  1  0
 35 37  2  0
 37 38  1  0
 38 39  1  0
 39 40  1  0
 39 41  1  0
 41 42  1  0
 42 43  1  1
 42 44  1  0
 44 45  1  6
 44 46  1  0
 46 47  1  1
 46 48  1  0
 48 49  1  0
 49 50  1  0
 50 51  2  0
 50 52  1  1
 50 53  1  0
M  END
