
     RDKit          3D

 34 36  0  0  0  0  0  0  0  0999 V2000
    5.1300   -2.5200    0.6870 N   0  0  0  0  0  0  0  0  0  0  0  0
    5.4100   -2.9000   -0.5420 C   0  0  0  0  0  0  0  0  0  0  0  0
    5.6340   -4.2290   -0.7960 N   0  0  0  0  0  0  0  0  0  0  0  0
    5.4800   -2.0080   -1.5670 N   0  0  0  0  0  0  0  0  0  0  0  0
    5.2650   -0.6940   -1.3390 C   0  0  0  0  0  0  0  0  0  0  0  0
    5.3280    0.1170   -2.2510 O   0  0  0  0  0  0  0  0  0  0  0  0
    4.9680   -0.2820   -0.0350 C   0  0  0  0  0  0  0  0  0  0  0  0
    4.7370    1.0770    0.2580 N   0  0  0  0  0  0  0  0  0  0  0  0
    4.0910    1.4200    1.5350 C   0  0  2  0  0  0  0  0  0  0  0  0
    4.7380    0.5710    2.6390 C   0  0  0  0  0  0  0  0  0  0  0  0
    4.6060   -0.8460    2.2700 N   0  0  0  0  0  0  0  0  0  0  0  0
    4.9040   -1.2340    0.9750 C   0  0  0  0  0  0  0  0  0  0  0  0
    2.5940    1.1120    1.4560 C   0  0  0  0  0  0  0  0  0  0  0  0
    2.0120    1.8070    0.3060 N   0  0  0  0  0  0  0  0  0  0  0  0
   -2.0470    1.4180   -0.5260 C   0  0  0  0  0  0  0  0  0  0  0  0
   -1.2370    2.2130   -1.3440 C   0  0  0  0  0  0  0  0  0  0  0  0
    0.1050    2.3390   -1.0660 C   0  0  0  0  0  0  0  0  0  0  0  0
    0.6560    1.6780    0.0280 C   0  0  0  0  0  0  0  0  0  0  0  0
   -0.1480    0.8860    0.8440 C   0  0  0  0  0  0  0  0  0  0  0  0
   -1.4900    0.7550    0.5710 C   0  0  0  0  0  0  0  0  0  0  0  0
   -3.4870    1.2850   -0.8180 C   0  0  0  0  0  0  0  0  0  0  0  0
   -3.9710    1.8670   -1.7700 O   0  0  0  0  0  0  0  0  0  0  0  0
   -4.2660    0.5190   -0.0290 N   0  0  0  0  0  0  0  0  0  0  0  0
   -5.6960    0.3870   -0.3180 C   0  0  1  0  0  0  0  0  0  0  0  0
   -6.2140   -0.9320    0.2600 C   0  0  0  0  0  0  0  0  0  0  0  0
   -5.5450   -2.1030   -0.4630 C   0  0  0  0  0  0  0  0  0  0  0  0
   -6.0550   -3.4010    0.1060 C   0  0  0  0  0  0  0  0  0  0  0  0
   -6.8690   -3.3910    0.9980 O   0  0  0  0  0  0  0  0  0  0  0  0
   -5.6040   -4.5690   -0.3780 O   0  0  0  0  0  0  0  0  0  0  0  0
   -6.4430    1.5370    0.3060 C   0  0  0  0  0  0  0  0  0  0  0  0
   -5.8430    2.3800    0.9290 O   0  0  0  0  0  0  0  0  0  0  0  0
   -7.7760    1.6250    0.1710 O   0  0  0  0  0  0  0  0  0  0  0  0
    5.1010    2.0410   -0.6110 C   0  0  0  0  0  0  0  0  0  0  0  0
    4.8080    3.1980   -0.3910 O   0  0  0  0  0  0  0  0  0  0  0  0
  1  2  2  0
  1 12  1  0
  2  3  1  0
  2  4  1  0
  4  5  1  0
  5  6  2  0
  5  7  1  0
  7  8  1  0
  7 12  2  0
  8  9  1  0
  8 33  1  0
  9 10  1  0
  9 13  1  6
 10 11  1  0
 11 12  1  0
 13 14  1  0
 14 18  1  0
 15 16  2  0
 15 20  1  0
 15 21  1  0
 16 17  1  0
 17 18  2  0
 18 19  1  0
 19 20  2  0
 21 22  2  0
 21 23  1  0
 23 24  1  0
 24 25  1  1
 24 30  1  0
 25 26  1  0
 26 27  1  0
 27 28  2  0
 27 29  1  0
 30 31  2  0
 30 32  1  0
 33 34  2  0
M  END
