
     RDKit          3D

 17 18  0  0  0  0  0  0  0  0999 V2000
   -1.2070    0.5640   -2.2160 N   0  0  0  0  0  0  0  0  0  0  0  0
   -0.2130    0.6360   -3.0750 C   0  0  0  0  0  0  0  0  0  0  0  0
   -0.4060    1.2850   -4.2690 N   0  0  0  0  0  0  0  0  0  0  0  0
    1.0000    0.0820   -2.8090 N   0  0  0  0  0  0  0  0  0  0  0  0
    1.2110   -0.5620   -1.6410 C   0  0  0  0  0  0  0  0  0  0  0  0
    2.2970   -1.0640   -1.3920 O   0  0  0  0  0  0  0  0  0  0  0  0
    0.1580   -0.6420   -0.7230 C   0  0  0  0  0  0  0  0  0  0  0  0
   -1.0590   -0.0590   -1.0410 C   0  0  0  0  0  0  0  0  0  0  0  0
    0.3260   -1.3060    0.5120 N   0  0  0  0  0  0  0  0  0  0  0  0
   -2.1120   -0.1250   -0.1420 N   0  0  0  0  0  0  0  0  0  0  0  0
   -0.6620   -1.0660    1.5750 C   0  0  2  0  0  0  0  0  0  0  0  0
   -2.0610   -1.1130    0.9440 C   0  0  0  0  0  0  0  0  0  0  0  0
   -0.4230    0.3080    2.2020 C   0  0  1  0  0  0  0  0  0  0  0  0
   -1.3960    0.5420    3.2230 O   0  0  0  0  0  0  0  0  0  0  0  0
    0.9780    0.3530    2.8140 C   0  0  2  0  0  0  0  0  0  0  0  0
    1.2170    1.7280    3.4410 C   0  0  0  0  0  0  0  0  0  0  0  0
    1.9510    0.1190    1.7930 O   0  0  0  0  0  0  0  0  0  0  0  0
  1  2  2  0
  1  8  1  0
  2  3  1  0
  2  4  1  0
  4  5  1  0
  5  6  2  0
  5  7  1  0
  7  8  2  0
  7  9  1  0
  8 10  1  0
  9 11  1  0
 10 12  1  0
 11 12  1  6
 11 13  1  0
 13 14  1  1
 13 15  1  0
 15 16  1  6
 15 17  1  0
M  END
