
     RDKit          3D

 60 67  0  0  0  0  0  0  0  0999 V2000
   -2.0350   -0.7780   -0.6370 Fe  0  0  0  0  0  4  0  0  0  0  0  0
   -4.0340    1.5310    0.1740 C   0  0  0  0  0  0  0  0  0  0  0  0
   -3.1610   -2.6810    1.6190 C   0  0  0  0  0  0  0  0  0  0  0  0
   -0.1150   -3.1190   -1.5400 C   0  0  0  0  0  0  0  0  0  0  0  0
   -1.0910    1.0370   -3.0480 C   0  0  0  0  0  0  0  0  0  0  0  0
   -3.7250   -0.8780    0.1140 N   0  0  0  0  0  0  0  0  0  0  0  0
   -4.5330    0.2330    0.3080 C   0  0  0  0  0  0  0  0  0  0  0  0
   -5.7450   -0.3390    0.6710 C   0  0  0  0  0  0  0  0  0  0  0  0
   -5.4960   -1.6740    1.0650 C   0  0  0  0  0  0  0  0  0  0  0  0
   -4.1020   -1.8700    0.9880 C   0  0  0  0  0  0  0  0  0  0  0  0
   -6.4960   -2.6650    1.4770 C   0  0  0  0  0  0  0  0  0  0  0  0
   -6.1480   -3.7830    1.7930 O   0  0  0  0  0  0  0  0  0  0  0  0
   -7.0890    0.3430    0.6490 C   0  0  0  0  0  0  0  0  0  0  0  0
   -7.2900    1.1150    1.9550 C   0  0  0  0  0  0  0  0  0  0  0  0
   -8.6340    1.7970    1.9330 C   0  0  0  0  0  0  0  0  0  0  0  0
   -9.3560    1.6770    0.9720 O   0  0  0  0  0  0  0  0  0  0  0  0
   -9.0280    2.5370    2.9810 O   0  0  0  0  0  0  0  0  0  0  0  0
   -1.1860   -2.0790    0.3570 N   0  0  0  0  0  0  0  0  0  0  0  0
   -1.7700   -2.7000    1.3970 C   0  0  0  0  0  0  0  0  0  0  0  0
   -0.6600   -3.4170    2.0160 C   0  0  0  0  0  0  0  0  0  0  0  0
    0.2850   -3.5660    1.0260 C   0  0  0  0  0  0  0  0  0  0  0  0
   -0.2800   -2.9280   -0.1600 C   0  0  0  0  0  0  0  0  0  0  0  0
   -0.5670   -3.8950    3.4420 C   0  0  0  0  0  0  0  0  0  0  0  0
   -1.4410   -1.2430   -2.3280 N   0  0  0  0  0  0  0  0  0  0  0  0
   -0.6880   -2.3790   -2.5800 C   0  0  0  0  0  0  0  0  0  0  0  0
   -0.6800   -2.4270   -3.9670 C   0  0  0  0  0  0  0  0  0  0  0  0
   -1.0430   -1.1510   -4.4510 C   0  0  0  0  0  0  0  0  0  0  0  0
   -1.2100   -0.3210   -3.3280 C   0  0  0  0  0  0  0  0  0  0  0  0
   -0.3430   -3.6300   -4.8090 C   0  0  0  0  0  0  0  0  0  0  0  0
   -1.2140   -0.7630   -5.8630 C   0  0  0  0  0  0  0  0  0  0  0  0
   -0.2670   -1.0500   -6.7500 C   0  0  0  0  0  0  0  0  0  0  0  0
   -1.8560    1.0530   -0.7520 N   0  0  0  0  0  0  0  0  0  0  0  0
   -1.2850    1.6690   -1.8010 C   0  0  0  0  0  0  0  0  0  0  0  0
   -1.1150    3.0340   -1.3210 C   0  0  0  0  0  0  0  0  0  0  0  0
   -2.0400    3.1910   -0.3100 C   0  0  0  0  0  0  0  0  0  0  0  0
   -2.7370    1.9140   -0.2150 C   0  0  0  0  0  0  0  0  0  0  0  0
   -0.1320    4.0610   -1.8230 C   0  0  0  0  0  0  0  0  0  0  0  0
   -2.2810    4.4250    0.5220 C   0  0  0  0  0  0  0  0  0  0  0  0
   -3.4210    5.2390   -0.0920 C   0  0  0  0  0  0  0  0  0  0  0  0
   -3.6620    6.4720    0.7400 C   0  0  0  0  0  0  0  0  0  0  0  0
   -2.9900    6.6790    1.7230 O   0  0  0  0  0  0  0  0  0  0  0  0
   -4.6230    7.3420    0.3890 O   0  0  0  0  0  0  0  0  0  0  0  0
    1.6250   -4.2470    1.1420 C   0  0  1  0  0  0  0  0  0  0  0  0
    1.7330   -5.2600    0.1400 O   0  0  0  0  0  0  0  0  0  0  0  0
    2.7390   -3.2160    0.9470 C   0  0  0  0  0  0  0  0  0  0  0  0
    4.0960   -3.8800    1.1870 C   0  0  0  0  0  0  0  0  0  0  0  0
    5.1930   -2.8650    0.9950 C   0  0  0  0  0  0  0  0  0  0  0  0
    6.0150   -2.5950    1.9790 C   0  0  0  0  0  0  0  0  0  0  0  0
    7.1910   -1.6800    1.7490 C   0  0  0  0  0  0  0  0  0  0  0  0
    6.8150   -0.2540    2.1550 C   0  0  0  0  0  0  0  0  0  0  0  0
    7.9910    0.6600    1.9250 C   0  0  0  0  0  0  0  0  0  0  0  0
    7.8760    1.6830    1.1150 C   0  0  0  0  0  0  0  0  0  0  0  0
    9.0060    2.6720    0.9860 C   0  0  0  0  0  0  0  0  0  0  0  0
    9.8840    2.2900   -0.2080 C   0  0  0  0  0  0  0  0  0  0  0  0
   11.0140    3.2790   -0.3370 C   0  0  0  0  0  0  0  0  0  0  0  0
   12.2530    2.8810   -0.1890 C   0  0  0  0  0  0  0  0  0  0  0  0
   12.5430    1.4650    0.2370 C   0  0  0  0  0  0  0  0  0  0  0  0
   13.3880    3.8390   -0.4440 C   0  0  0  0  0  0  0  0  0  0  0  0
    5.7850   -3.1980    3.3410 C   0  0  0  0  0  0  0  0  0  0  0  0
    6.6150    1.8710    0.3120 C   0  0  0  0  0  0  0  0  0  0  0  0
  1  6  1  0
  1 18  1  0
  1 24  1  0
  1 32  1  0
  2  7  2  0
  2 36  1  0
  3 10  2  0
  3 19  1  0
  4 22  2  0
  4 25  1  0
  5 28  1  0
  5 33  2  0
  6  7  1  0
  6 10  1  0
  7  8  1  0
  8  9  2  0
  8 13  1  0
  9 10  1  0
  9 11  1  0
 11 12  2  0
 13 14  1  0
 14 15  1  0
 15 16  2  0
 15 17  1  0
 18 19  2  0
 18 22  1  0
 19 20  1  0
 20 21  2  0
 20 23  1  0
 21 22  1  0
 21 43  1  0
 24 25  1  0
 24 28  1  0
 25 26  2  0
 26 27  1  0
 26 29  1  0
 27 28  2  0
 27 30  1  0
 30 31  2  0
 32 33  1  0
 32 36  2  0
 33 34  1  0
 34 35  2  0
 34 37  1  0
 35 36  1  0
 35 38  1  0
 38 39  1  0
 39 40  1  0
 40 41  2  0
 40 42  1  0
 43 44  1  6
 43 45  1  0
 45 46  1  0
 46 47  1  0
 47 48  2  3
 48 49  1  0
 48 59  1  0
 49 50  1  0
 50 51  1  0
 51 52  2  3
 52 53  1  0
 52 60  1  0
 53 54  1  0
 54 55  1  0
 55 56  2  3
 56 57  1  0
 56 58  1  0
M  CHG  3   1  -2  18   1  32   1
M  END
