
     RDKit          3D

 14 14  0  0  0  0  0  0  0  0999 V2000
    1.4490    2.9560    0.6920 N   0  0  0  0  0  0  0  0  0  0  0  0
    0.3100    2.1120    0.3050 C   0  0  2  0  0  0  0  0  0  0  0  0
    0.7670    0.6820    0.1740 C   0  0  0  0  0  0  0  0  0  0  0  0
   -0.2490    2.5930   -1.0350 C   0  0  0  0  0  0  0  0  0  0  0  0
    1.9330    0.3260   -0.2630 N   0  0  0  0  0  0  0  0  0  0  0  0
    2.0220   -1.0430   -0.2550 C   0  0  0  0  0  0  0  0  0  0  0  0
    0.7190   -1.5220    0.2610 C   0  0  0  0  0  0  0  0  0  0  0  0
    0.3710   -2.6750    0.4310 O   0  0  0  0  0  0  0  0  0  0  0  0
    3.0740   -1.7930   -0.6360 C   0  0  0  0  0  0  0  0  0  0  0  0
    0.0040   -0.4030    0.5070 N   0  0  0  0  0  0  0  0  0  0  0  0
   -1.3610   -0.3580    1.0390 C   0  0  0  0  0  0  0  0  0  0  0  0
   -2.3450   -0.3860   -0.1010 C   0  0  0  0  0  0  0  0  0  0  0  0
   -1.9480   -0.4380   -1.2410 O   0  0  0  0  0  0  0  0  0  0  0  0
   -3.6640   -0.3540    0.1490 O   0  0  0  0  0  0  0  0  0  0  0  0
  1  2  1  0
  2  3  1  0
  2  4  1  6
  3  5  2  0
  3 10  1  0
  5  6  1  0
  6  7  1  0
  6  9  2  0
  7  8  2  0
  7 10  1  0
 10 11  1  0
 11 12  1  0
 12 13  2  0
 12 14  1  0
M  END
