
     RDKit          3D

 21 20  0  0  0  0  0  0  0  0999 V2000
   -0.8120   -0.0660   -0.4610 N   0  0  0  0  0  0  0  0  0  0  0  0
   -5.0530   -0.8270    0.4760 P   0  0  1  0  0  0  0  0  0  0  0  0
   -6.0250   -1.1240   -0.5990 O   0  0  0  0  0  0  0  0  0  0  0  0
   -5.3220    0.6540    1.0480 O   0  0  0  0  0  0  0  0  0  0  0  0
   -5.2220   -1.9000    1.6640 O   0  0  0  0  0  0  0  0  0  0  0  0
   -3.5580   -0.9100   -0.1140 O   0  0  0  0  0  0  0  0  0  0  0  0
   -3.1250   -0.1560   -1.2480 C   0  0  1  0  0  0  0  0  0  0  0  0
   -2.3810    1.6100    0.3240 C   0  0  0  0  0  0  0  0  0  0  0  0
   -3.4230    2.4480    0.2040 O   0  0  0  0  0  0  0  0  0  0  0  0
   -1.7780    1.5430    1.3690 O   0  0  0  0  0  0  0  0  0  0  0  0
   -1.9640    0.7540   -0.8430 C   0  0  1  0  0  0  0  0  0  0  0  0
   -2.6640   -1.1120   -2.3500 C   0  0  0  0  0  0  0  0  0  0  0  0
    0.6020    1.5720   -0.9510 O   0  0  0  0  0  0  0  0  0  0  0  0
    0.4340    0.4390   -0.5520 C   0  0  0  0  0  0  0  0  0  0  0  0
    1.6200   -0.4040   -0.1590 C   0  0  0  0  0  0  0  0  0  0  0  0
    2.9060    0.4010   -0.3560 C   0  0  0  0  0  0  0  0  0  0  0  0
    4.1100   -0.4550    0.0440 C   0  0  0  0  0  0  0  0  0  0  0  0
    5.3960    0.3500   -0.1540 C   0  0  0  0  0  0  0  0  0  0  0  0
    6.5990   -0.5060    0.2460 C   0  0  0  0  0  0  0  0  0  0  0  0
    7.8850    0.2990    0.0480 C   0  0  0  0  0  0  0  0  0  0  0  0
    9.3120   -0.7160    0.5220 S   0  0  0  0  0  0  0  0  0  0  0  0
 11  1  1  1
  1 14  1  0
  2  3  2  0
  2  4  1  1
  2  5  1  0
  2  6  1  0
  6  7  1  0
  7 11  1  0
  7 12  1  6
  8  9  1  0
  8 10  2  0
  8 11  1  0
 13 14  2  0
 14 15  1  0
 15 16  1  0
 16 17  1  0
 17 18  1  0
 18 19  1  0
 19 20  1  0
 20 21  1  0
M  END
