
     RDKit          3D

 28 28  0  0  0  0  0  0  0  0999 V2000
   -4.6670   -4.5020   -1.6350 N   0  0  0  0  0  0  0  0  0  0  0  0
   -3.8940   -4.6280   -0.3930 C   0  0  2  0  0  0  0  0  0  0  0  0
   -4.6060   -5.5660    0.5490 C   0  0  0  0  0  0  0  0  0  0  0  0
   -5.7830   -5.7920    0.4010 O   0  0  0  0  0  0  0  0  0  0  0  0
   -3.7560   -3.2530    0.2640 C   0  0  0  0  0  0  0  0  0  0  0  0
   -2.9260   -2.3380   -0.6380 C   0  0  0  0  0  0  0  0  0  0  0  0
   -2.7900   -0.9840    0.0090 C   0  0  0  0  0  0  0  0  0  0  0  0
   -3.3060   -0.7720    1.0860 O   0  0  0  0  0  0  0  0  0  0  0  0
   -3.9310   -6.1500    1.5520 O   0  0  0  0  0  0  0  0  0  0  0  0
   -1.9630    1.3080    0.0200 C   0  0  1  0  0  0  0  0  0  0  0  0
   -3.1660    2.1500   -0.3190 C   0  0  0  0  0  0  0  0  0  0  0  0
   -4.0470    1.6950   -1.0170 O   0  0  0  0  0  0  0  0  0  0  0  0
   -2.0950   -0.0090   -0.6090 N   0  0  0  0  0  0  0  0  0  0  0  0
   -0.6970    1.9950   -0.4960 C   0  0  0  0  0  0  0  0  0  0  0  0
    0.7510    0.9820   -0.0880 S   0  0  0  0  0  0  0  0  0  0  0  0
    7.4400   -0.9930    0.2960 Br  0  0  0  0  0  0  0  0  0  0  0  0
    3.4250    1.2240   -0.5070 C   0  0  0  0  0  0  0  0  0  0  0  0
    3.9080    0.3140   -1.4290 C   0  0  0  0  0  0  0  0  0  0  0  0
    5.1000   -0.3440   -1.1910 C   0  0  0  0  0  0  0  0  0  0  0  0
    5.8100   -0.0930   -0.0300 C   0  0  0  0  0  0  0  0  0  0  0  0
    5.3250    0.8180    0.8920 C   0  0  0  0  0  0  0  0  0  0  0  0
    4.1330    1.4760    0.6530 C   0  0  0  0  0  0  0  0  0  0  0  0
    2.1280    1.9460   -0.7700 C   0  0  0  0  0  0  0  0  0  0  0  0
   -3.2630    3.4080    0.1540 N   0  0  0  0  0  0  0  0  0  0  0  0
   -4.4320    4.2260   -0.1760 C   0  0  0  0  0  0  0  0  0  0  0  0
   -4.2960    5.5810    0.4710 C   0  0  0  0  0  0  0  0  0  0  0  0
   -3.3220    5.8360    1.1390 O   0  0  0  0  0  0  0  0  0  0  0  0
   -5.2570    6.5030    0.3050 O   0  0  0  0  0  0  0  0  0  0  0  0
  2  1  1  6
  2  3  1  0
  2  5  1  0
  3  4  2  0
  3  9  1  0
  5  6  1  0
  6  7  1  0
  7  8  2  0
 10 11  1  0
 10 13  1  0
 10 14  1  6
 11 12  2  0
 14 15  1  0
 15 23  1  0
 16 20  1  0
 17 18  2  0
 17 22  1  0
 17 23  1  0
 18 19  1  0
 19 20  2  0
 20 21  1  0
 21 22  2  0
 24 25  1  0
 25 26  1  0
 26 27  2  0
 26 28  1  0
  7 13  1  0
 11 24  1  0
M  CHG  1   1   1
M  END
