
     RDKit          3D

 23 24  0  0  0  0  0  0  0  0999 V2000
    4.8840   -4.5560    0.6620 N   0  0  0  0  0  0  0  0  0  0  0  0
    4.2370   -3.3500    0.1480 C   0  0  1  0  0  0  0  0  0  0  0  0
    3.8560   -2.4210    1.3050 C   0  0  0  0  0  0  0  0  0  0  0  0
    5.2240   -2.7160   -0.8180 C   0  0  0  0  0  0  0  0  0  0  0  0
    6.4420   -2.7620   -0.7140 O   0  0  0  0  0  0  0  0  0  0  0  0
    3.2020   -1.1610    0.8260 C   0  0  0  0  0  0  0  0  0  0  0  0
    1.7310   -1.1950    0.6190 C   0  0  0  0  0  0  0  0  0  0  0  0
    1.0680   -2.2070    0.8280 O   0  0  0  0  0  0  0  0  0  0  0  0
    1.0740    0.0420    0.1470 C   0  0  0  0  0  0  0  0  0  0  0  0
    3.8860   -0.0360    0.5870 C   0  0  0  0  0  0  0  0  0  0  0  0
    3.2320    1.2050    0.1150 C   0  0  0  0  0  0  0  0  0  0  0  0
    3.9030    2.2900   -0.1150 N   0  0  0  0  0  0  0  0  0  0  0  0
    1.7630    1.1630   -0.0900 C   0  0  0  0  0  0  0  0  0  0  0  0
    1.1220    2.3030   -0.5310 O   0  0  0  0  0  0  0  0  0  0  0  0
    4.0010    6.4490    1.0490 C   0  0  0  0  0  0  0  0  0  0  0  0
    4.4570    5.3990    0.2520 C   0  0  0  0  0  0  0  0  0  0  0  0
    5.5290    4.6340    0.6840 C   0  0  0  0  0  0  0  0  0  0  0  0
    6.1570    4.8930    1.8920 C   0  0  0  0  0  0  0  0  0  0  0  0
    5.7010    5.9430    2.6890 C   0  0  0  0  0  0  0  0  0  0  0  0
    4.6230    6.7210    2.2670 C   0  0  0  0  0  0  0  0  0  0  0  0
    6.0220    3.4980   -0.1780 C   0  0  0  0  0  0  0  0  0  0  0  0
    5.3310    2.1730    0.1300 C   0  0  0  0  0  0  0  0  0  0  0  0
    4.5970   -2.0780   -1.8430 O   0  0  0  0  0  0  0  0  0  0  0  0
  2  1  1  1
  2  3  1  0
  2  4  1  0
  3  6  1  0
  4  5  2  0
  4 23  1  0
  6  7  1  0
  6 10  2  0
  7  8  2  0
  7  9  1  0
  9 13  2  0
 10 11  1  0
 11 12  2  3
 11 13  1  0
 12 22  1  0
 13 14  1  0
 15 16  2  0
 15 20  1  0
 16 17  1  0
 17 18  2  0
 17 21  1  0
 18 19  1  0
 19 20  2  0
 21 22  1  0
M  END
