
     RDKit          3D

 16 17  0  0  0  0  0  0  0  0999 V2000
    5.0890   -0.2800    0.1730 C   0  0  0  0  0  0  0  0  0  0  0  0
    4.9560   -1.4730    0.0300 O   0  0  0  0  0  0  0  0  0  0  0  0
    6.2990    0.2330    0.4440 O   0  0  0  0  0  0  0  0  0  0  0  0
    3.8960    0.6310    0.0390 C   0  0  0  0  0  0  0  0  0  0  0  0
    2.6510   -0.2000   -0.2760 C   0  0  0  0  0  0  0  0  0  0  0  0
    1.4400    0.7250   -0.4120 C   0  0  0  0  0  0  0  0  0  0  0  0
    0.1960   -0.1060   -0.7270 C   0  0  0  0  0  0  0  0  0  0  0  0
   -1.0150    0.8190   -0.8630 C   0  0  2  0  0  0  0  0  0  0  0  0
   -1.4190    1.6040    0.7510 S   0  0  0  0  0  0  0  0  0  0  0  0
   -3.2050    1.8270    0.3710 C   0  0  0  0  0  0  0  0  0  0  0  0
   -3.5300    0.5810   -0.4760 C   0  0  2  0  0  0  0  0  0  0  0  0
   -3.9700   -0.5070    0.4120 N   0  0  0  0  0  0  0  0  0  0  0  0
   -3.1410   -1.5490    0.2710 C   0  0  0  0  0  0  0  0  0  0  0  0
   -3.2710   -2.5890    0.8880 O   0  0  0  0  0  0  0  0  0  0  0  0
   -2.1540   -1.3430   -0.6120 N   0  0  0  0  0  0  0  0  0  0  0  0
   -2.2890    0.0100   -1.1750 C   0  0  2  0  0  0  0  0  0  0  0  0
  1  2  2  0
  1  3  1  0
  1  4  1  0
  4  5  1  0
  5  6  1  0
  6  7  1  0
  8  7  1  1
  8  9  1  0
  8 16  1  0
  9 10  1  0
 11 10  1  1
 11 12  1  0
 11 16  1  0
 12 13  1  0
 13 14  2  0
 13 15  1  0
 16 15  1  1
M  END
