
     RDKit          3D

 31 33  0  0  0  0  0  0  0  0999 V2000
    2.1180   -2.4930    0.5310 N   0  0  0  0  0  0  0  0  0  0  0  0
    2.7130   -3.6380    0.2060 C   0  0  0  0  0  0  0  0  0  0  0  0
    2.1220   -4.6770    0.4450 O   0  0  0  0  0  0  0  0  0  0  0  0
    3.9210   -3.7210   -0.3680 N   0  0  0  0  0  0  0  0  0  0  0  0
    4.6360   -2.6100   -0.6640 C   0  0  0  0  0  0  0  0  0  0  0  0
    5.7320   -2.6820   -1.1850 O   0  0  0  0  0  0  0  0  0  0  0  0
    4.0270   -1.3050   -0.3250 C   0  0  0  0  0  0  0  0  0  0  0  0
    4.6310   -0.1700   -0.5660 N   0  0  0  0  0  0  0  0  0  0  0  0
    4.0510    0.9950   -0.2460 C   0  0  0  0  0  0  0  0  0  0  0  0
    4.7180    2.2060   -0.5140 C   0  0  0  0  0  0  0  0  0  0  0  0
    4.1310    3.3920   -0.1900 C   0  0  0  0  0  0  0  0  0  0  0  0
    4.8500    4.6830   -0.4800 C   0  0  0  0  0  0  0  0  0  0  0  0
    2.8740    3.4230    0.4050 C   0  0  0  0  0  0  0  0  0  0  0  0
    2.2460    4.7480    0.7520 C   0  0  0  0  0  0  0  0  0  0  0  0
    2.1970    2.2550    0.6780 C   0  0  0  0  0  0  0  0  0  0  0  0
    2.7740    1.0290    0.3590 C   0  0  0  0  0  0  0  0  0  0  0  0
    2.1010   -0.1440    0.6310 N   0  0  0  0  0  0  0  0  0  0  0  0
    2.6950   -1.3250    0.3040 C   0  0  0  0  0  0  0  0  0  0  0  0
    0.7770   -0.1190    1.2580 C   0  0  0  0  0  0  0  0  0  0  0  0
   -0.3000   -0.0600    0.1730 C   0  0  2  0  0  0  0  0  0  0  0  0
   -0.1220    1.1210   -0.6110 O   0  0  0  0  0  0  0  0  0  0  0  0
   -1.6830   -0.0350    0.8270 C   0  0  2  0  0  0  0  0  0  0  0  0
   -1.8600   -1.2170    1.6110 O   0  0  0  0  0  0  0  0  0  0  0  0
   -2.7600    0.0240   -0.2580 C   0  0  2  0  0  0  0  0  0  0  0  0
   -2.5820    1.2060   -1.0420 O   0  0  0  0  0  0  0  0  0  0  0  0
   -4.1420    0.0490    0.3970 C   0  0  0  0  0  0  0  0  0  0  0  0
   -5.1490   -0.0130   -0.6150 O   0  0  0  0  0  0  0  0  0  0  0  0
   -6.7250   -0.0070   -0.2850 P   0  0  1  0  0  0  0  0  0  0  0  0
   -7.0530    1.1800    0.5360 O   0  0  0  0  0  0  0  0  0  0  0  0
   -7.5610    0.0450   -1.6600 O   0  0  0  0  0  0  0  0  0  0  0  0
   -7.1090   -1.3440    0.5260 O   0  0  0  0  0  0  0  0  0  0  0  0
  1  2  1  0
  1 18  2  0
  2  3  2  0
  2  4  1  0
  4  5  1  0
  5  6  2  0
  5  7  1  0
  7  8  2  0
  7 18  1  0
  8  9  1  0
  9 10  1  0
  9 16  2  0
 10 11  2  0
 11 12  1  0
 11 13  1  0
 13 14  1  0
 13 15  2  0
 15 16  1  0
 16 17  1  0
 17 18  1  0
 17 19  1  0
 19 20  1  0
 20 21  1  1
 20 22  1  0
 22 23  1  6
 22 24  1  0
 24 25  1  1
 24 26  1  0
 26 27  1  0
 27 28  1  0
 28 29  2  0
 28 30  1  6
 28 31  1  0
M  END
