
     RDKit          3D

 12 12  0  0  0  0  0  0  0  0999 V2000
    4.5860    0.0880   -0.1410 C   0  0  0  0  0  0  0  0  0  0  0  0
    5.7070    0.7290    0.2220 O   0  0  0  0  0  0  0  0  0  0  0  0
    3.2730    0.4370    0.5100 C   0  0  0  0  0  0  0  0  0  0  0  0
    4.6280   -0.7670   -0.9950 O   0  0  0  0  0  0  0  0  0  0  0  0
    2.1610   -0.4290   -0.0850 C   0  0  0  0  0  0  0  0  0  0  0  0
    0.8280   -0.0740    0.5770 C   0  0  0  0  0  0  0  0  0  0  0  0
   -0.2840   -0.9400   -0.0180 C   0  0  0  0  0  0  0  0  0  0  0  0
   -1.6170   -0.5850    0.6440 C   0  0  1  0  0  0  0  0  0  0  0  0
   -2.0920    1.1230    0.1890 S   0  0  0  0  0  0  0  0  0  0  0  0
   -2.7010   -1.5500    0.1620 C   0  0  0  0  0  0  0  0  0  0  0  0
   -4.1210   -0.9510    0.2110 C   0  0  0  0  0  0  0  0  0  0  0  0
   -3.9410    0.6760   -0.6350 S   0  0  0  0  0  0  0  0  0  0  0  0
  3  1  1  0
  1  4  2  0
  1  2  1  0
  5  3  1  0
  6  5  1  0
  7  6  1  0
  8  7  1  6
 10  8  1  0
  8  9  1  0
 12  9  1  0
 11 10  1  0
 11 12  1  0
M  END
