
     RDKit          3D

 22 21  0  0  0  0  0  0  0  0999 V2000
    3.2890   -0.6620    4.8040 O   0  0  0  0  0  0  0  0  0  0  0  0
    2.0940    0.1590    4.1050 P   0  0  2  0  0  0  0  0  0  0  0  0
    2.6060    0.7630    2.7030 O   0  0  0  0  0  0  0  0  0  0  0  0
    1.6690    1.2640    4.9930 O   0  0  0  0  0  0  0  0  0  0  0  0
    0.8480   -0.8260    3.8400 O   0  0  0  0  0  0  0  0  0  0  0  0
   -0.1740   -0.0420    3.2220 C   0  0  0  0  0  0  0  0  0  0  0  0
   -1.3930   -0.9240    2.9420 C   0  0  1  0  0  0  0  0  0  0  0  0
   -0.9910   -2.0680    2.0090 C   0  0  0  0  0  0  0  0  0  0  0  0
   -1.9180   -1.5000    4.2580 C   0  0  0  0  0  0  0  0  0  0  0  0
   -2.4870   -0.0850    2.2800 C   0  0  1  0  0  0  0  0  0  0  0  0
   -2.9580    0.8980    3.2030 O   0  0  0  0  0  0  0  0  0  0  0  0
   -1.9270    0.5980    1.0590 C   0  0  0  0  0  0  0  0  0  0  0  0
   -1.7480    1.7980    1.0650 O   0  0  0  0  0  0  0  0  0  0  0  0
   -1.6240   -0.1220   -0.0370 N   0  0  0  0  0  0  0  0  0  0  0  0
   -1.1560    0.5520   -1.2510 C   0  0  0  0  0  0  0  0  0  0  0  0
   -0.8850   -0.4870   -2.3400 C   0  0  0  0  0  0  0  0  0  0  0  0
   -0.4030    0.2060   -3.5880 C   0  0  0  0  0  0  0  0  0  0  0  0
   -0.2870    1.4130   -3.6040 O   0  0  0  0  0  0  0  0  0  0  0  0
   -0.1000   -0.5150   -4.6860 N   0  0  0  0  0  0  0  0  0  0  0  0
    0.3670    0.1590   -5.8990 C   0  0  0  0  0  0  0  0  0  0  0  0
    0.6380   -0.8800   -6.9880 C   0  0  0  0  0  0  0  0  0  0  0  0
    1.2180   -0.0450   -8.4900 S   0  0  0  0  0  0  0  0  0  0  0  0
  2  1  1  1
  2  3  1  0
  2  4  2  0
  2  5  1  0
  5  6  1  0
  6  7  1  0
  7  8  1  6
  7  9  1  0
  7 10  1  0
 10 11  1  1
 10 12  1  0
 12 13  2  0
 12 14  1  0
 14 15  1  0
 15 16  1  0
 16 17  1  0
 17 18  2  0
 17 19  1  0
 19 20  1  0
 20 21  1  0
 21 22  1  0
M  END
