9P4:B:803
     RDKit          3D

 23 25  0  0  0  0  0  0  0  0999 V2000
   19.2840   10.2750   53.3180 F   0  0  0  0  0  0  0  0  0  0  0  0
   19.9610    9.1470   53.6100 C   0  0  0  0  0  0  0  0  0  0  0  0
   21.3110    9.0100   53.2720 C   0  0  0  0  0  0  0  0  0  0  0  0
   21.9940    7.8880   53.5550 N   0  0  0  0  0  0  0  0  0  0  0  0
   21.3800    6.8700   54.1720 C   0  0  0  0  0  0  0  0  0  0  0  0
   19.3080    8.1030   54.2500 C   0  0  0  0  0  0  0  0  0  0  0  0
   20.0340    6.9520   54.5300 C   0  0  0  0  0  0  0  0  0  0  0  0
   19.3820    5.7830   55.2230 C   0  0  0  0  0  0  0  0  0  0  0  0
   17.8830    5.9860   55.3870 C   0  0  0  0  0  0  0  0  0  0  0  0
   17.4260    4.8570   56.2960 C   0  0  0  0  0  0  0  0  0  0  0  0
   15.9920    4.8730   56.6120 N   0  0  0  0  0  0  0  0  0  0  0  0
   15.8140    3.5720   57.2530 C   0  0  0  0  0  0  0  0  0  0  0  0
   14.4710    3.2360   57.8510 C   0  0  0  0  0  0  0  0  0  0  0  0
   13.6200    4.1720   58.4480 C   0  0  0  0  0  0  0  0  0  0  0  0
   12.4130    3.7550   59.0220 C   0  0  0  0  0  0  0  0  0  0  0  0
   14.1260    1.8880   57.8310 C   0  0  0  0  0  0  0  0  0  0  0  0
   12.9210    1.4750   58.3820 C   0  0  0  0  0  0  0  0  0  0  0  0
   12.6100    0.1590   58.3320 N   0  0  0  0  0  0  0  0  0  0  0  0
   12.0650    2.4030   58.9870 C   0  0  0  0  0  0  0  0  0  0  0  0
   10.8700    1.9560   59.5500 C   0  0  0  0  0  0  0  0  0  0  0  0
   10.5920    0.5870   59.4890 C   0  0  0  0  0  0  0  0  0  0  0  0
   11.4650   -0.3090   58.8630 C   0  0  0  0  0  0  0  0  0  0  0  0
   11.1930   -1.6440   58.7760 N   0  0  0  0  0  0  0  0  0  0  0  0
  2  1  1  0
  3  2  2  0
  4  3  1  0
  5  4  2  0
  6  2  1  0
  7  6  2  0
  7  5  1  0
  8  7  1  0
  9  8  1  0
 10  9  1  0
 11 10  1  0
 12 11  1  0
 13 12  1  0
 14 13  2  0
 15 14  1  0
 16 13  1  0
 17 16  2  0
 18 17  1  0
 19 17  1  0
 19 15  2  0
 20 19  1  0
 21 20  2  0
 22 21  1  0
 22 18  2  0
 23 22  1  0
M  END
